Mass spectrum: p-Coumaric acid; LC-ESI-QTOF; MS; CE:7 eV; [M+H]+
Name: p-Coumaric acid
Class: Natural Product; N/A
Formula: C9H8O3
Exact mass: 164.0473
Instrument: Bruker maXis HD
Instrument type: LC-ESI-QTOF
Ms type: MS
Ion mode: POSITIVE
Collision energy: 7 eV
Ionization: ESI
Retention time: 489.72 sec
m/z	relative intensity
91.0542	12
119.0491	106
120.0525	10
123.0440	2
147.0440	999
148.0474	101
149.0496	9
165.0546	760
166.0580	79
167.0600	8
187.0366	185
188.0398	19
189.0418	2
203.0016	4
205.0467	2
221.0120	2
244.0281	2
248.0497	2
260.0002	2
266.0519	8
266.5535	2
275.0570	8
275.5589	2
276.0444	3
348.0753	57
348.5770	23
349.0779	6
349.5790	1
350.0724	2
351.0829	4
353.0598	4
365.0106	5
367.0487	20
368.0521	4
371.0704	4
382.0134	2
383.0208	9
384.0238	2
385.0592	8
386.0628	2
401.0313	3
403.0694	2
424.0472	5
430.0990	17
430.6006	8
431.0734	1
431.1017	2
442.0778	2
499.0964	6
500.0995	2
515.1182	11
516.1207	5
517.1074	67
518.1105	19
519.1130	4
524.1015	3
524.6036	2
528.0498	2
531.0959	29
532.0989	9
533.1010	2
533.1285	4
534.1312	2
535.1214	2
537.0656	5
537.1130	7
538.0685	2
538.1170	2
538.5782	2
539.0836	3
544.0649	1
546.0606	19
547.0671	24
548.0703	7
549.0702	3
549.1062	10
550.1095	3
631.0515	2
633.0838	2
633.5863	1
679.1655	12
680.1682	6
681.1556	15
682.1585	6
683.1614	2
695.1430	27
696.1462	11
697.1489	3
699.1340	2
700.1303	2
700.6307	1
701.1159	1
707.1219	2
707.6230	2
710.1077	4
711.1114	3
715.1083	2
723.1229	2
899.1205	2
