Mass spectrum: p-Coumaric acid; LC-ESI-QTOF; MS2; CE:17 eV; [M+H]+
Name: p-Coumaric acid
Class: Natural Product; N/A
Formula: C9H8O3
Exact mass: 164.0473
Instrument: Bruker maXis HD
Instrument type: LC-ESI-QTOF
Ms type: MS2
Ion mode: POSITIVE
Collision energy: 17 eV
Ionization: ESI
Retention time: 487.835 sec
Precursor m/z: 165.0522
Precursor type: [M+H]+
m/z	relative intensity
63.0234	4
65.0389	119
66.0423	6
75.0232	9
76.0270	1
77.0387	14
84.9598	1
89.0385	3
90.0461	2
91.0543	224
92.0578	21
95.0492	9
101.0381	1
103.0537	2
105.0449	5
118.0418	3
119.0493	466
120.0527	41
121.0385	1
121.0556	4
123.0443	17
124.0473	1
129.0446	6
147.0295	1
147.0443	999
148.0478	115
149.0495	6
165.0551	7
