Mass spectrum: Novobiocin; LC-ESI-QTOF; MS; CE:7 eV; [M+H]+
Name: Novobiocin
Class: Natural Product; N/A
Formula: C31H36N2O11
Exact mass: 612.2319
Instrument: Bruker maXis HD
Instrument type: LC-ESI-QTOF
Ms type: MS
Ion mode: POSITIVE
Collision energy: 7 eV
Ionization: ESI
Retention time: 916.383 sec
m/z	relative intensity
125.0595	4
128.1069	1
133.0284	3
157.0858	6
186.0762	5
186.9562	2
189.0910	17
190.0944	2
218.1023	52
219.1058	6
243.1356	5
243.2874	4
264.1744	1
326.0967	16
326.3780	2
326.5984	6
334.0830	2
335.1019	13
335.6034	4
344.1070	2
346.6100	25
347.1114	10
347.6132	2
355.6152	23
356.1166	9
365.1035	6
365.6051	2
372.1206	3
396.1440	7
434.0903	5
475.1174	4
475.3038	2
491.0892	7
500.1666	5
532.1163	1
587.1867	3
613.2393	999
614.2425	348
615.2449	79
616.2474	13
625.2258	1
632.2125	15
632.7140	10
633.2220	7
633.7281	3
635.2212	368
635.7218	1
636.2242	122
636.6070	4
637.2267	27
638.2288	5
640.1989	8
640.7000	6
641.2174	16
641.7191	11
642.2200	5
651.1934	8
652.1973	2
652.7258	12
653.2273	9
653.7294	4
657.2027	17
658.2057	7
667.1577	2
671.2193	8
671.7211	6
672.2209	2
693.1790	14
694.1819	6
695.1774	6
697.1906	6
703.2078	10
704.2106	4
707.4532	1
708.1846	1
712.1559	5
715.1613	2
719.1733	3
720.1979	5
725.1899	12
726.1930	5
742.2179	4
743.2278	2
771.1945	8
772.1984	3
793.1773	11
794.1806	5
861.1643	6
862.1664	1
929.1519	4
930.3403	4
930.8411	4
931.3400	3
938.3279	12
938.8298	13
939.3315	8
939.8331	2
941.3362	5
941.8378	5
942.3395	2
946.3143	4
946.8155	4
947.3172	3
949.8192	1
952.3268	2
952.8296	1
1225.4717	63
1225.9730	4
1226.4750	44
1227.4769	16
1228.4803	5
1244.9471	2
1245.4485	2
1247.4531	44
1247.9514	1
1248.4565	30
1249.4581	12
1250.4612	3
1263.4198	2
1269.4348	7
1270.4373	5
1291.4175	3
