Mass spectrum: Trimetoprim; LC-ESI-QTOF; MS; CE:7 eV; [M+H]+
Name: Trimetoprim
Class: Natural Product; N/A
Formula: C14H18N4O3
Exact mass: 290.1379
Instrument: Bruker maXis HD
Instrument type: LC-ESI-QTOF
Ms type: MS
Ion mode: POSITIVE
Collision energy: 7 eV
Ionization: ESI
Retention time: 445.785 sec
m/z	relative intensity
261.0981	3
275.1137	3
291.1452	999
292.1483	166
293.1506	18
313.1269	2
