Mass spectrum: Kinetin; LC-ESI-QTOF; MS2; CE:19 eV; [M+H]+
Name: Kinetin
Class: Natural Product; N/A
Formula: C10H9N5O
Exact mass: 215.0807
Instrument: Bruker maXis HD
Instrument type: LC-ESI-QTOF
Ms type: MS2
Ion mode: POSITIVE
Collision energy: 19 eV
Ionization: ESI
Retention time: 420.082 sec
Precursor m/z: 216.0847
Precursor type: [M+H]+
m/z	relative intensity
81.0337	999
82.0371	100
148.0618	241
188.0932	107
216.0880	477
217.0909	58
