Mass spectrum: Trimetoprim; LC-ESI-QTOF; MS2; CE:21 eV; [M+H]+
Name: Trimetoprim
Class: Natural Product; N/A
Formula: C14H18N4O3
Exact mass: 290.1379
Instrument: Bruker maXis HD
Instrument type: LC-ESI-QTOF
Ms type: MS2
Ion mode: POSITIVE
Collision energy: 21 eV
Ionization: ESI
Retention time: 449.05 sec
Precursor m/z: 291.1406
Precursor type: [M+H]+
m/z	relative intensity
68.0373	6
77.0391	2
81.0451	33
82.0488	2
83.0480	3
91.0543	2
106.0404	2
107.0491	2
109.0514	3
110.0589	31
111.0664	7
115.0538	2
118.0656	1
119.0491	1
119.0607	2
120.0573	1
121.0767	1
123.0443	9
123.0668	141
124.0721	12
128.0493	2
130.0648	1
131.0607	2
132.0445	1
135.0667	4
137.0603	3
142.0654	3
145.0638	1
145.0768	2
146.0601	2
146.0715	4
148.0751	2
149.0240	1
149.0713	6
149.0824	3
151.0398	2
156.0450	2
157.0762	2
158.0611	2
159.0923	2
160.0755	2
161.0826	16
162.0898	8
163.0976	2
165.0550	1
167.0610	1
169.0765	1
170.0605	4
170.0711	3
171.0555	1
171.0673	1
172.0400	2
172.0749	2
173.0472	1
173.0579	1
173.0821	4
174.0544	2
174.0664	11
174.0890	2
175.0625	5
175.0977	4
176.0697	3
181.0863	9
182.0715	2
182.0897	1
184.0743	2
184.0874	4
185.0823	6
186.0557	2
186.0664	2
186.0898	4
187.0979	18
188.0706	1
188.1033	2
189.0772	6
190.0849	8
191.0926	4
197.0825	1
198.0667	3
198.0885	1
199.0741	1
199.0980	10
200.0352	1
200.0704	1
200.0816	1
200.1035	2
201.0774	4
201.1138	23
202.0829	2
202.1184	4
203.0929	8
204.0978	2
205.1093	1
211.0976	2
212.0821	2
212.1034	1
213.0774	4
214.0610	2
214.0849	4
215.0685	2
215.0923	9
216.0771	2
216.1004	3
217.0717	2
217.1087	2
218.0787	1
219.0785	1
227.0927	2
228.0996	2
229.0730	2
229.1085	27
230.0795	2
230.1167	154
231.0879	25
231.1194	19
232.0955	31
232.1215	1
233.1031	18
234.1057	3
239.0913	1
242.0565	2
243.0870	2
244.0729	1
245.1035	18
246.1104	7
247.1194	14
248.1236	2
255.0879	1
257.1037	18
258.1116	42
259.0825	5
259.1152	6
260.0873	1
260.1266	3
261.0985	95
262.1017	11
263.1033	2
275.1141	64
276.1212	41
277.1247	6
291.1038	1
291.1456	999
291.3806	1
291.3943	1
292.1487	170
293.1511	17
