Mass spectrum: Phloridzin; LC-ESI-QTOF; MS2; CE:26 eV; [M+H]+
Name: Phloridzin
Class: Natural Product; N/A
Formula: C21H24O10
Exact mass: 436.1369
Instrument: Bruker maXis HD
Instrument type: LC-ESI-QTOF
Ms type: MS2
Ion mode: POSITIVE
Collision energy: 26 eV
Ionization: ESI
Retention time: 562.399 sec
Precursor m/z: 437.1375
Precursor type: [M+H]+
m/z	relative intensity
69.0331	11
77.0387	16
79.0545	10
85.0286	48
97.0281	14
105.0450	7
107.0493	999
108.0526	81
109.0278	7
121.0651	12
127.0393	44
131.0495	15
139.0389	8
145.0498	16
145.0652	9
149.0600	139
150.0638	16
151.0392	30
163.0402	8
169.0500	211
170.0527	18
173.0593	43
181.0489	15
191.0711	23
193.0505	24
194.0522	7
205.0500	10
211.0606	47
215.0707	31
233.0814	14
235.0602	63
247.0605	8
257.0800	10
259.0615	13
275.0916	370
276.0956	57
277.0706	14
277.0978	10
281.0822	9
287.0919	59
288.0945	9
295.0798	9
299.0907	26
317.1022	66
318.1061	8
341.1018	44
342.1062	14
353.1021	78
354.1059	22
365.1013	19
366.1035	7
383.1120	17
401.1238	9
