Mass spectrum: Naproxen; LC-ESI-QTOF; MS2; CE:19 eV; [M+H]+
Name: Naproxen
Class: Natural Product; N/A
Formula: C14H14O3
Exact mass: 230.0943
Instrument: Bruker maXis HD
Instrument type: LC-ESI-QTOF
Ms type: MS2
Ion mode: POSITIVE
Collision energy: 19 eV
Ionization: ESI
Retention time: 751.772 sec
Precursor m/z: 231.0983
Precursor type: [M+H]+
m/z	relative intensity
77.0384	1
114.0460	2
115.0543	49
116.0578	6
127.0540	2
128.0620	13
129.0697	6
141.0700	58
142.0412	2
142.0769	22
143.0487	3
143.0812	3
144.0566	3
151.0542	3
152.0621	33
153.0696	43
154.0773	27
155.0492	4
155.0603	6
155.0851	13
156.0567	2
156.0888	2
157.0643	2
158.0727	22
159.0780	3
168.0570	1
169.0650	38
170.0726	89
171.0760	12
179.0607	3
181.0763	5
183.0810	1
184.0884	3
185.0708	1
185.0963	999
185.2818	2
185.4320	1
186.0997	150
187.1027	11
213.0908	1
231.1017	8
232.1053	1
