Mass spectrum: Indole-3-carboxaldehyd; LC-ESI-QTOF; MS; CE:7 eV; [M+H]+
Name: Indole-3-carboxaldehyd
Class: Natural Product; N/A
Formula: C9H7NO
Exact mass: 145.0528
Instrument: Bruker maXis HD
Instrument type: LC-ESI-QTOF
Ms type: MS
Ion mode: POSITIVE
Collision energy: 7 eV
Ionization: ESI
Retention time: 536.371 sec
m/z	relative intensity
91.0542	6
117.0573	24
118.0651	240
119.0685	25
146.0390	2
146.0602	999
146.1297	2
146.1819	3
146.2237	9
146.3522	19
147.0633	140
148.0659	9
165.0335	2
168.0420	51
169.0453	5
237.5599	8
238.0615	2
238.5718	1
239.5708	6
240.0725	2
240.5691	2
245.5461	6
246.0476	2
246.5652	5
253.5683	6
254.0699	2
302.0976	5
302.5988	2
303.0945	2
310.0863	19
310.5879	8
311.0891	2
313.0946	4
318.0725	2
