Mass spectrum: Nortriptylin; LC-ESI-QTOF; MS; CE:7 eV; [M+H]+
Name: Nortriptylin
Class: Natural Product; N/A
Formula: C19H21N
Exact mass: 263.1674
Instrument: Bruker maXis HD
Instrument type: LC-ESI-QTOF
Ms type: MS
Ion mode: POSITIVE
Collision energy: 7 eV
Ionization: ESI
Retention time: 679.889 sec
m/z	relative intensity
91.0542	3
105.0699	9
115.0542	5
117.0698	15
128.0620	2
129.0697	5
141.0697	2
155.0855	8
178.0776	8
179.0852	10
191.0855	25
192.0907	6
193.1006	4
203.0853	4
204.0928	4
205.1009	9
207.1167	3
217.1011	2
218.1088	9
219.1122	2
233.1325	152
234.1359	31
235.1392	3
264.1324	2
264.1750	999
264.2675	3
264.3383	7
264.3952	15
264.5565	13
264.5767	15
264.7477	3
264.9371	1
265.1255	3
265.1780	421
266.1814	46
267.1844	3
