Mass spectrum: Novobiocin; LC-ESI-QTOF; MS2; CE:31 eV; [M+H]+
Name: Novobiocin
Class: Natural Product; N/A
Formula: C31H36N2O11
Exact mass: 612.2319
Instrument: Bruker maXis HD
Instrument type: LC-ESI-QTOF
Ms type: MS2
Ion mode: POSITIVE
Collision energy: 31 eV
Ionization: ESI
Retention time: 915.712 sec
Precursor m/z: 613.2299
Precursor type: [M+H]+
m/z	relative intensity
59.0491	2
69.0701	4
71.0131	2
71.0495	3
73.0650	22
74.0686	2
77.0389	13
79.0546	4
81.0698	2
83.0496	9
85.0286	42
85.0651	4
86.0325	3
91.0550	3
97.0648	57
98.0679	5
99.0441	5
101.0597	20
105.0333	9
105.0691	1
111.0806	4
115.0755	1
117.0549	2
125.0599	121
126.0632	10
128.0719	2
129.0912	5
133.0285	173
134.0318	14
135.0327	2
139.0752	4
143.0707	39
144.0741	2
147.0443	10
148.0473	1
151.0403	1
157.0860	64
158.0896	6
171.0805	2
175.0964	3
186.0763	64
187.0800	4
189.0623	2
189.0913	999
190.0945	140
191.0967	9
192.0983	1
218.1025	40
219.1063	4
294.0761	1
322.0718	4
323.0747	1
378.1330	9
379.1366	3
396.1436	29
397.1468	8
