Mass spectrum: Kinetin; LC-ESI-QTOF; MS; CE:7 eV; [M+H]+
Name: Kinetin
Class: Natural Product; N/A
Formula: C10H9N5O
Exact mass: 215.0807
Instrument: Bruker maXis HD
Instrument type: LC-ESI-QTOF
Ms type: MS
Ion mode: POSITIVE
Collision energy: 7 eV
Ionization: ESI
Retention time: 417.541 sec
m/z	relative intensity
84.9598	2
106.9919	1
110.0087	2
124.9664	1
148.0618	33
216.0880	999
217.0909	121
218.0934	10
238.0697	10
257.9676	1
