Mass spectrum: Phloridzin; LC-ESI-QTOF; MS; CE:7 eV; [M+H]+
Name: Phloridzin
Class: Natural Product; N/A
Formula: C21H24O10
Exact mass: 436.1369
Instrument: Bruker maXis HD
Instrument type: LC-ESI-QTOF
Ms type: MS
Ion mode: POSITIVE
Collision energy: 7 eV
Ionization: ESI
Retention time: 559.138 sec
m/z	relative intensity
107.0491	118
108.0525	10
127.0389	6
149.0597	29
150.0630	3
151.0389	3
169.0495	61
170.0529	6
238.0492	5
238.5509	1
257.0807	2
275.0914	999
275.3154	1
276.0948	172
277.0970	23
278.0996	3
317.1018	9
318.1051	2
341.1017	2
401.1228	2
419.1335	14
420.1365	3
437.1442	156
438.1475	37
439.1495	7
456.1175	5
456.6192	2
459.1261	35
460.1293	8
461.1018	2
461.1313	1
475.0993	1
599.1970	87
600.2002	26
601.2022	6
674.1857	4
674.6876	3
675.1887	1
711.2275	4
712.2310	1
761.2491	3
873.2809	23
874.2837	10
875.2866	3
892.2540	3
892.7557	2
893.2571	1
895.2621	5
896.2653	2
897.2412	1
1035.3333	3
1036.3369	2
1110.3225	1
1110.8240	2
1309.4178	2
1310.4216	1
