Mass spectrum: Trans-Ferulic acid; LC-ESI-QTOF; MS2; CE:18 eV; [M+H]+
Name: Trans-Ferulic acid
Class: Natural Product; N/A
Formula: C10H10O4
Exact mass: 194.0579
Instrument: Bruker maXis HD
Instrument type: LC-ESI-QTOF
Ms type: MS2
Ion mode: POSITIVE
Collision energy: 18 eV
Ionization: ESI
Retention time: 518.432 sec
Precursor m/z: 195.0625
Precursor type: [M+H]+
m/z	relative intensity
61.0077	2
62.0153	6
63.0232	43
64.0267	3
65.0388	11
76.0311	1
77.0388	36
78.0466	72
79.0526	8
89.0387	259
90.0421	21
91.0544	14
92.0573	1
93.0337	7
95.0493	2
103.0543	5
104.0570	1
105.0337	20
105.0447	11
106.0412	18
107.0490	6
117.0337	196
118.0373	14
119.0495	3
121.0651	6
125.0597	9
129.0451	1
131.0495	1
133.0292	1
133.0658	2
134.0365	33
135.0429	6
145.0287	929
145.1913	2
145.3273	1
146.0322	100
147.0344	8
149.0600	134
150.0636	16
153.0549	21
154.0582	2
162.0315	16
163.0392	17
164.0419	2
177.0312	1
177.0550	999
177.2351	2
177.2484	2
177.3677	1
178.0585	120
179.0339	2
179.0605	12
180.0418	1
194.0568	2
195.0649	3
