Mass spectrum: Rutin; LC-ESI-QTOF; MS; CE:7 eV; [M+H]+
Name: Rutin
Class: Natural Product; N/A
Formula: C27H30O16
Exact mass: 610.1534
Instrument: Bruker maXis HD
Instrument type: LC-ESI-QTOF
Ms type: MS
Ion mode: POSITIVE
Collision energy: 7 eV
Ionization: ESI
Retention time: 512.035 sec
m/z	relative intensity
89.0386	2
97.9914	1
101.0031	12
125.9864	4
130.0078	15
132.0035	7
141.9585	8
158.0029	15
158.9614	7
159.1127	1
160.0469	3
186.1309	3
186.9561	15
233.0121	2
245.1283	3
253.0502	1
283.0437	3
290.0107	2
291.1340	17
303.0498	120
304.0529	20
313.1147	2
325.0578	2
333.0437	3
334.0626	22
334.5633	3
364.0640	14
364.5663	4
371.0804	3
385.0596	4
387.0927	4
393.0923	13
393.5938	6
394.0922	4
401.0809	80
401.5827	35
402.0837	12
403.0732	2
409.0671	3
409.0981	4
409.5688	1
414.0965	4
422.0863	107
422.5880	43
423.0890	15
423.5906	3
424.0839	2
425.0339	4
449.1029	6
465.1023	54
466.1054	13
477.1044	11
477.6061	5
478.1078	1
479.0187	1
489.0603	3
491.0938	4
519.1154	12
519.6167	5
520.0483	2
520.1188	2
531.0944	3
563.1392	2
565.1281	9
566.1302	3
572.0319	1
579.1173	3
611.1606	999
612.1638	289
613.1658	73
614.1336	4
614.1682	5
630.1337	102
630.6354	61
631.1355	27
631.6377	8
632.1351	2
633.1424	502
634.1455	139
635.1121	9
635.1475	34
635.5677	2
635.6096	2
636.0930	17
636.1503	1
638.1056	2
643.1048	2
644.0106	38
645.0138	5
649.1146	12
657.0931	3
659.9843	20
665.0787	3
713.1323	3
732.1474	4
732.6480	2
739.1434	3
749.0629	3
787.1656	6
788.1687	2
796.0569	5
807.1708	3
827.1848	6
828.1868	3
829.1761	31
830.1603	13
843.1648	11
844.1678	6
858.1291	14
859.1366	20
860.1393	7
935.2102	21
935.7111	17
936.2130	9
936.7147	2
1221.3124	13
1222.3167	5
1243.2959	42
1244.2987	25
1245.2837	13
1246.2806	4
1259.2616	2
1275.2318	3
