Mass spectrum: Phloridzin; LC-ESI-QTOF; MS2; CE:21 eV; [M+H]+
Name: Phloridzin
Class: Natural Product; N/A
Formula: C21H24O10
Exact mass: 436.1369
Instrument: Bruker maXis HD
Instrument type: LC-ESI-QTOF
Ms type: MS2
Ion mode: POSITIVE
Collision energy: 21 eV
Ionization: ESI
Retention time: 561.927 sec
Precursor m/z: 275.0872
Precursor type: [M+H]+
m/z	relative intensity
67.0181	2
68.9975	2
77.0388	59
78.0425	4
79.0544	19
80.0578	1
81.0335	1
95.0492	4
105.0448	20
106.0480	2
107.0344	2
107.0493	999
107.1509	1
107.1896	3
107.2927	2
107.3057	3
108.0527	78
109.0551	4
121.0652	3
123.0441	3
127.0393	8
149.0602	3
151.0392	6
169.0500	135
170.0533	13
171.0541	1
181.0499	2
275.0912	3
