Mass spectrum: 2-Methoxybenzoic acid; LC-ESI-QTOF; MS2; CE:17 eV; [M+H]+
Name: 2-Methoxybenzoic acid
Class: Natural Product; N/A
Formula: C8H8O3
Exact mass: 152.0473
Instrument: Bruker maXis HD
Instrument type: LC-ESI-QTOF
Ms type: MS2
Ion mode: POSITIVE
Collision energy: 17 eV
Ionization: ESI
Retention time: 510.131 sec
Precursor m/z: 153.0526
Precursor type: [M+H]+
m/z	relative intensity
61.0076	2
62.0153	5
63.0232	38
64.0310	28
65.0345	1
77.0389	166
78.0424	11
79.0546	24
80.0581	2
92.0257	120
93.0292	9
95.0491	6
105.0337	8
105.0449	51
106.0483	4
107.0494	8
120.0209	9
135.0242	3
135.0444	999
135.1114	5
135.1581	4
135.1663	2
135.2018	10
135.3175	9
135.3324	10
135.4543	2
135.5896	2
136.0478	142
137.0499	10
153.0547	2
