Mass spectrum: L-(+)-Alpha-Phenylglycine; LC-ESI-QTOF; MS2; CE:17 eV; [M+H]+
Name: L-(+)-Alpha-Phenylglycine
Class: Natural Product; N/A
Formula: C8H9NO2
Exact mass: 151.0633
Instrument: Bruker maXis HD
Instrument type: LC-ESI-QTOF
Ms type: MS2
Ion mode: POSITIVE
Collision energy: 17 eV
Ionization: ESI
Retention time: 90.0557 sec
Precursor m/z: 152.0687
Precursor type: [M+H]+
m/z	relative intensity
77.0386	596
79.0210	103
79.0543	599
101.0135	113
106.0651	107
107.0488	694
123.0074	96
135.0441	999
