Mass spectrum: 2-Methoxybenzoic acid; LC-ESI-QTOF; MS2; CE:17 eV; [M+H]+
Name: 2-Methoxybenzoic acid
Class: Natural Product; N/A
Formula: C8H8O3
Exact mass: 152.0473
Instrument: Bruker maXis HD
Instrument type: LC-ESI-QTOF
Ms type: MS2
Ion mode: POSITIVE
Collision energy: 17 eV
Ionization: ESI
Retention time: 508.356 sec
Precursor m/z: 135.0422
Precursor type: [M+H]+
m/z	relative intensity
61.0080	4
62.0156	9
63.0233	85
64.0311	33
77.0390	425
78.0425	32
79.0547	80
80.0581	7
92.0259	167
93.0294	12
95.0493	29
105.0338	47
105.0450	215
106.0486	16
107.0498	19
108.0527	3
120.0212	40
121.0245	2
135.0445	999
136.0479	108
137.0500	6
