Mass spectrum: Indole-3-acetyl-L-valine; LC-ESI-QTOF; MS; CE:7 eV; [M+H]+
Name: Indole-3-acetyl-L-valine
Class: Natural Product; N/A
Formula: C15H18N2O3
Exact mass: 274.1317
Instrument: Bruker maXis HD
Instrument type: LC-ESI-QTOF
Ms type: MS
Ion mode: POSITIVE
Collision energy: 7 eV
Ionization: ESI
Retention time: 624.566 sec
m/z	relative intensity
72.0811	5
77.0388	1
103.0545	5
118.0867	14
128.0499	1
130.0655	242
131.0689	24
132.0722	1
157.0484	1
158.0607	1
177.5607	1
229.1340	132
230.1374	21
231.1399	2
257.1290	50
258.1322	8
273.1239	2
274.1316	7
275.0670	2
275.0967	2
275.1398	999
275.2343	3
275.3022	5
275.3126	4
275.3643	16
275.5292	14
275.5498	15
275.7240	3
275.9173	2
276.0869	2
276.1012	1
276.1428	299
277.1454	33
278.1476	3
291.1342	4
294.1135	4
294.6153	1
297.1216	162
298.1249	27
299.1268	3
307.1292	4
313.0956	6
547.2552	8
548.2593	3
549.2710	448
549.5892	3
549.8212	2
549.8497	3
550.2742	160
551.2772	31
552.2795	4
563.2499	1
568.2448	1
571.2531	192
572.2562	66
573.2314	1
573.2587	12
574.2609	2
587.2263	3
821.3871	3
822.3900	1
845.3799	6
846.3821	3
847.3635	6
848.3665	3
861.3505	10
862.3538	5
863.3568	1
876.3152	2
877.3223	6
878.3254	3
879.3260	1
1119.5059	2
1120.5082	1
1121.4954	8
1122.4974	5
1123.5000	2
1135.4830	9
1136.4860	6
1137.4894	2
1150.4473	1
1151.4536	2
1152.4561	1
