Mass spectrum: Indole-3-carboxaldehyd; LC-ESI-QTOF; MS2; CE:17 eV; [M+H]+
Name: Indole-3-carboxaldehyd
Class: Natural Product; N/A
Formula: C9H7NO
Exact mass: 145.0528
Instrument: Bruker maXis HD
Instrument type: LC-ESI-QTOF
Ms type: MS2
Ion mode: POSITIVE
Collision energy: 17 eV
Ionization: ESI
Retention time: 538.121 sec
Precursor m/z: 146.058
Precursor type: [M+H]+
m/z	relative intensity
62.0153	2
63.0232	3
65.0390	37
66.0425	2
88.9814	1
89.0389	25
90.0464	31
91.0543	207
92.0579	17
116.0494	2
117.0576	61
118.0654	999
118.2155	1
119.0688	95
120.0725	3
130.0083	1
144.0445	2
146.0604	160
147.0636	19
