Mass spectrum: Indole-3-acetyl-L-valine; LC-ESI-QTOF; MS; CE:7 eV; [M+H]+
Name: Indole-3-acetyl-L-valine
Class: Natural Product; N/A
Formula: C15H18N2O3
Exact mass: 274.1317
Instrument: Bruker maXis HD
Instrument type: LC-ESI-QTOF
Ms type: MS
Ion mode: POSITIVE
Collision energy: 7 eV
Ionization: ESI
Retention time: 623.672 sec
m/z	relative intensity
103.0542	7
118.0863	24
119.0896	2
128.0494	2
130.0651	364
131.0685	40
132.0718	2
157.0472	2
158.0600	1
177.5599	1
229.1336	105
230.1368	16
231.1400	1
257.1286	45
258.1317	8
273.1232	2
274.1310	7
275.0945	2
275.1392	999
275.3058	4
275.3642	11
275.5288	9
275.5493	12
276.1423	286
277.1449	32
278.1472	3
291.1336	3
294.1125	6
294.6141	2
297.1210	133
298.1242	24
299.1266	3
302.0987	1
307.1287	4
313.0945	5
431.1782	4
431.6798	2
547.2549	10
548.2592	4
549.2708	613
549.5897	2
549.8488	1
550.2740	213
551.2769	42
552.2791	6
563.2497	2
568.2438	3
568.7456	2
571.2527	211
572.2559	71
573.2288	5
573.2583	14
574.2317	1
574.2603	2
587.2227	4
588.2255	1
603.1893	2
821.3865	3
822.3893	2
845.3788	5
846.3812	3
847.3616	6
848.3640	3
861.3494	10
862.3524	5
863.3549	1
876.3148	2
877.3212	6
878.3242	3
1121.4935	5
1122.4957	3
1135.4816	6
1136.4844	4
