Mass spectrum: Trans-Ferulic acid; LC-ESI-QTOF; MS; CE:7 eV; [M+H]+
Name: Trans-Ferulic acid
Class: Natural Product; N/A
Formula: C10H10O4
Exact mass: 194.0579
Instrument: Bruker maXis HD
Instrument type: LC-ESI-QTOF
Ms type: MS
Ion mode: POSITIVE
Collision energy: 7 eV
Ionization: ESI
Retention time: 515.561 sec
m/z	relative intensity
89.0387	6
117.0335	17
118.0374	1
134.0362	9
145.0284	39
146.0318	2
149.0597	45
150.0631	5
162.0310	3
163.0384	2
177.0546	999
178.0580	113
179.0601	12
194.0572	2
195.0652	624
196.0686	72
197.0705	8
214.0387	1
216.0390	2
217.0472	312
218.0505	35
219.0523	4
233.0122	1
235.0574	5
239.0289	2
249.0367	1
251.1850	1
311.0679	2
311.5693	1
320.0729	3
408.0964	39
408.5982	17
409.0974	5
410.0937	1
411.1046	20
412.1078	4
413.0811	1
422.0863	2
425.0314	2
427.0699	5
431.0915	2
442.0345	2
443.0413	4
445.0802	3
461.0523	2
479.0186	1
484.0677	3
505.1253	34
505.6270	19
506.1281	7
506.6294	2
589.1277	2
605.1498	7
606.1520	3
607.1391	44
608.1422	13
609.1445	4
614.1332	3
614.6349	2
621.1276	14
622.1304	2
627.0971	4
627.1448	6
628.1036	2
628.1478	2
628.6111	2
629.1148	2
636.0928	9
637.0990	16
638.1022	6
639.1027	2
639.1375	5
640.1412	2
799.2076	13
800.2103	7
801.1982	20
802.2009	9
803.2034	3
815.1854	26
816.1886	11
817.1902	3
830.1502	5
831.1547	3
843.1646	1
