Mass spectrum: Biochanin A; LC-ESI-QTOF; MS; CE:7 eV; [M+H]+
Name: Biochanin A
Class: Natural Product; N/A
Formula: C16H12O5
Exact mass: 284.0685
Instrument: Bruker maXis HD
Instrument type: LC-ESI-QTOF
Ms type: MS
Ion mode: POSITIVE
Collision energy: 7 eV
Ionization: ESI
Retention time: 794.759 sec
m/z	relative intensity
162.0151	8
171.0202	7
174.5395	4
180.0259	2
182.5284	19
190.5145	13
191.0164	1
191.5336	17
195.0527	2
199.5196	8
200.5387	7
201.0220	5
208.0386	6
210.0274	2
285.0758	999
286.0790	177
287.0812	26
304.0493	21
304.5511	6
307.0576	176
308.0609	32
309.0632	4
323.0298	10
343.0561	1
355.0394	6
365.0162	3
368.0711	4
369.0280	7
370.0661	5
380.0212	15
381.0244	2
383.9925	5
397.0266	2
401.0360	1
415.0699	8
417.0093	4
443.0324	2
446.0837	7
446.5844	3
588.1165	3
591.1256	83
592.1287	28
593.1017	22
593.1307	4
594.1049	7
607.0905	9
685.1052	3
891.1581	6
892.1620	2
928.0786	6
