Mass spectrum: L-(+)-Alpha-Phenylglycine; LC-ESI-QTOF; MS; CE:7 eV; [M+H]+
Name: L-(+)-Alpha-Phenylglycine
Class: Natural Product; N/A
Formula: C8H9NO2
Exact mass: 151.0633
Instrument: Bruker maXis HD
Instrument type: LC-ESI-QTOF
Ms type: MS
Ion mode: POSITIVE
Collision energy: 7 eV
Ionization: ESI
Retention time: 85.7752 sec
m/z	relative intensity
79.0214	999
79.0545	3
79.5011	2
80.0243	37
81.0172	86
90.0060	2
90.4830	13
97.9947	48
98.9928	7
99.4881	6
100.0058	6
101.0032	417
102.0059	13
102.1278	35
102.9989	22
105.9809	35
106.0651	37
106.4818	1
106.9794	3
107.0000	36
107.0491	52
107.9987	4
108.0526	5
109.0110	4
114.0030	19
114.9862	22
115.0017	3
116.0053	11
123.0081	19
123.0553	1
123.9914	5
129.0129	56
129.0519	4
129.4899	1
129.5137	11
134.9561	12
135.0441	406
136.0474	39
136.0615	2
137.0017	280
137.4762	18
137.5029	25
137.9997	40
138.0182	36
138.4996	3
138.5190	7
138.9990	15
139.0129	88
139.5144	8
140.0104	54
140.5117	2
141.0085	7
143.9902	16
144.4898	7
144.9879	281
145.4888	32
145.9867	49
146.0070	120
146.0812	1
146.4859	5
146.5083	10
146.9858	11
147.0050	20
148.0025	2
148.9915	9
150.9510	16
152.0706	382
153.0100	173
153.0739	34
153.4908	6
153.5113	18
153.9930	9
154.0083	25
154.9932	12
155.9915	2
157.0352	318
158.0378	2
159.0310	20
162.9735	11
166.9952	16
167.4868	16
168.0200	10
168.9921	5
176.0092	32
177.0069	1
178.0015	12
178.9459	27
179.0170	22
179.9361	3
191.9542	1
192.0170	4
194.9902	16
195.9487	7
217.0139	7
219.0099	7
223.9434	17
225.0098	13
230.0847	4
230.9594	9
240.9875	31
242.9837	3
245.0091	8
246.9312	12
247.0048	6
248.9283	7
256.9598	52
257.9615	6
258.9583	10
264.9676	11
269.9681	11
273.0040	11
273.9260	1
273.9622	9
276.9806	10
292.9493	2
292.9976	4
294.9917	7
296.9874	9
297.9630	7
301.9574	21
305.9344	5
308.9745	23
310.9705	4
324.9470	14
340.9912	8
351.9398	7
372.9687	14
386.9887	10
401.9223	6
408.5056	19
409.0067	4
409.5048	2
416.4914	24
416.9929	7
417.4915	4
455.4985	2
