Mass spectrum: Indole-3-acetyl-L-valine; LC-ESI-QTOF; MS2; CE:21 eV; [M+H]+
Name: Indole-3-acetyl-L-valine
Class: Natural Product; N/A
Formula: C15H18N2O3
Exact mass: 274.1317
Instrument: Bruker maXis HD
Instrument type: LC-ESI-QTOF
Ms type: MS2
Ion mode: POSITIVE
Collision energy: 21 eV
Ionization: ESI
Retention time: 626.835 sec
Precursor m/z: 275.1349
Precursor type: [M+H]+
m/z	relative intensity
72.0812	224
73.0845	10
77.0388	20
78.0422	1
102.0465	2
103.0544	44
104.0578	4
105.0449	5
118.0867	145
119.0902	9
128.0496	10
129.0538	2
130.0484	2
130.0656	999
130.1313	2
130.1774	1
130.2199	5
130.3338	5
130.3478	5
131.0689	113
132.0723	4
158.0609	4
229.1343	83
230.1376	13
231.1395	1
257.1288	1
275.1395	4
