Mass spectrum: 2-Methoxybenzoic acid; LC-ESI-QTOF; MS; CE:7 eV; [M+H]+
Name: 2-Methoxybenzoic acid
Class: Natural Product; N/A
Formula: C8H8O3
Exact mass: 152.0473
Instrument: Bruker maXis HD
Instrument type: LC-ESI-QTOF
Ms type: MS
Ion mode: POSITIVE
Collision energy: 7 eV
Ionization: ESI
Retention time: 506.171 sec
m/z	relative intensity
77.0388	2
92.0257	5
105.0334	1
120.0200	3
135.0250	2
135.0441	999
135.1110	2
135.1576	2
135.1664	1
135.2013	9
135.3172	8
135.3317	9
136.0474	124
137.0494	10
153.0546	442
154.0580	43
155.0597	5
170.0811	2
172.0281	2
175.0366	176
176.0400	16
191.0098	2
197.0184	4
240.0630	5
240.5643	2
248.0518	29
248.5535	8
249.0544	2
256.0379	3
257.0570	6
257.5587	2
305.1019	13
306.1051	2
316.0865	4
316.5880	2
317.0846	2
324.0754	38
324.5771	14
325.0781	3
327.0837	26
328.0869	4
343.0487	4
349.0659	4
359.0211	7
479.1183	2
481.1074	25
482.1106	6
495.0959	4
510.0605	6
511.0663	4
