Mass spectrum: Nortriptylin; LC-ESI-QTOF; MS2; CE:20 eV; [M+H]+
Name: Nortriptylin
Class: Natural Product; N/A
Formula: C19H21N
Exact mass: 263.1674
Instrument: Bruker maXis HD
Instrument type: LC-ESI-QTOF
Ms type: MS2
Ion mode: POSITIVE
Collision energy: 20 eV
Ionization: ESI
Retention time: 683.104 sec
Precursor m/z: 264.1712
Precursor type: [M+H]+
m/z	relative intensity
65.0389	18
66.0420	1
70.0656	73
71.0690	4
77.0388	34
78.0424	2
79.0545	32
80.0577	2
91.0545	600
91.1839	2
91.1905	2
91.2793	1
91.2850	1
91.2913	1
92.0579	48
93.0610	1
103.0544	34
104.0581	3
105.0448	7
105.0703	467
105.2089	1
105.3112	1
105.3243	1
106.0736	43
107.0771	1
115.0544	102
116.0587	12
117.0703	441
117.2170	1
118.0737	42
119.0774	1
127.0545	8
128.0622	41
129.0702	72
130.0737	8
131.0854	2
141.0703	36
142.0750	5
144.0812	1
145.0647	1
152.0622	7
153.0701	18
154.0771	7
155.0606	21
155.0862	153
156.0641	2
156.0896	22
157.0918	1
158.0972	1
163.0545	3
164.0621	3
165.0701	44
166.0741	7
167.0860	4
168.0913	1
172.1124	2
173.1197	2
176.0621	12
177.0697	11
178.0780	220
179.0852	115
180.0892	15
187.0545	5
188.0618	4
189.0701	119
190.0773	85
191.0860	465
192.0907	93
193.1010	33
194.1047	5
199.0540	1
200.0623	9
201.0695	10
202.0779	212
203.0853	240
204.0927	115
205.1016	161
206.1051	26
207.1175	31
208.1210	6
213.0698	4
214.0763	1
215.0858	52
216.0924	27
217.1013	93
218.1095	179
219.1130	31
220.1163	2
229.0764	3
229.0994	1
231.1176	17
232.1221	4
233.0988	2
233.1333	999
233.2827	2
233.2942	1
233.3402	5
233.4925	4
233.5110	4
234.1368	222
235.1401	19
264.1757	494
264.3970	1
265.1790	110
266.1822	11
