Mass spectrum: Naproxen; LC-ESI-QTOF; MS; CE:7 eV; [M+H]+
Name: Naproxen
Class: Natural Product; N/A
Formula: C14H14O3
Exact mass: 230.0943
Instrument: Bruker maXis HD
Instrument type: LC-ESI-QTOF
Ms type: MS
Ion mode: POSITIVE
Collision energy: 7 eV
Ionization: ESI
Retention time: 750.693 sec
m/z	relative intensity
115.0541	7
128.0620	2
141.0698	7
142.0773	4
144.0332	1
147.5524	1
152.0619	6
153.0697	10
154.0772	8
155.0849	3
155.5413	5
158.0726	14
159.0773	1
164.5465	2
169.0646	4
170.0724	16
171.0761	2
185.0961	600
186.0995	85
187.1024	6
201.0909	2
230.0936	3
231.1015	999
231.3064	1
232.1050	155
233.1075	17
234.1099	2
242.0862	2
248.1279	8
250.0750	20
250.5767	6
251.0781	1
253.0835	849
254.0869	131
255.0892	14
259.0803	2
269.0572	12
270.0605	2
271.0938	2
275.0654	77
276.0687	12
291.0391	6
303.1701	5
304.1732	1
325.1522	15
326.1553	3
342.0912	2
365.1221	12
365.6236	6
366.1252	2
480.1691	8
480.6708	5
481.1721	2
483.1776	146
484.1810	45
485.1833	8
499.1425	10
500.1458	3
505.1595	45
506.1628	13
507.1658	3
513.1192	2
515.1149	26
516.1180	8
517.1170	4
517.1528	2
517.1827	2
521.1324	3
526.1801	4
527.1412	20
527.1829	1
528.1447	6
543.1151	2
547.2546	13
548.2578	5
556.1179	3
569.2364	4
570.2394	2
713.2589	8
714.2616	5
715.2490	12
716.2520	6
717.2545	1
729.2369	52
730.2401	23
731.2424	6
733.2546	3
735.2536	8
736.2569	4
743.2125	1
744.2027	6
745.2086	22
746.2115	10
747.2125	4
751.2181	2
757.2349	8
758.2382	4
773.2058	1
779.2171	10
780.2203	4
943.3532	14
944.3561	10
945.3438	38
946.3463	22
947.3488	7
948.3516	2
959.3312	39
960.3343	23
961.3370	7
962.3399	2
965.3471	4
966.3502	2
974.2952	5
975.2983	3
989.3058	3
990.3086	2
1025.2759	1
1031.2933	2
1032.2961	1
1041.2489	2
1241.3822	3
1242.3840	2
1270.3346	3
1271.3391	2
