Mass spectrum: Rutin; LC-ESI-QTOF; MS2; CE:31 eV; [M+H]+
Name: Rutin
Class: Natural Product; N/A
Formula: C27H30O16
Exact mass: 610.1534
Instrument: Bruker maXis HD
Instrument type: LC-ESI-QTOF
Ms type: MS2
Ion mode: POSITIVE
Collision energy: 31 eV
Ionization: ESI
Retention time: 515.571 sec
Precursor m/z: 611.1513
Precursor type: [M+H]+
m/z	relative intensity
71.0493	50
85.0287	84
111.0086	7
129.0550	37
145.0501	19
147.0654	12
165.0187	9
201.0552	11
229.0500	42
257.0449	23
258.0472	6
285.0407	16
303.0501	999
304.0534	170
305.0565	21
465.1032	6
