Mass spectrum: Novobiocin; LC-ESI-QTOF; MS2; CE:44 eV; [M+H]+
Name: Novobiocin
Class: Natural Product; N/A
Formula: C31H36N2O11
Exact mass: 612.2319
Instrument: Bruker maXis HD
Instrument type: LC-ESI-QTOF
Ms type: MS2
Ion mode: POSITIVE
Collision energy: 44 eV
Ionization: ESI
Retention time: 915.213 sec
Precursor m/z: 1225.453
Precursor type: [M+H]+
m/z	relative intensity
73.0647	25
83.0489	15
85.0281	53
97.0646	56
125.0596	126
126.0622	14
133.0284	53
143.0703	32
157.0858	97
158.0908	15
186.0764	105
189.0911	999
190.0941	124
191.0970	12
218.1022	504
219.1062	37
220.1058	11
322.0717	11
345.1702	47
378.1334	16
396.1435	261
397.1476	56
406.1860	17
613.2386	193
614.2424	64
