Mass spectrum: 3-Indoleacetonitrile; LC-ESI-QTOF; MS; CE:7 eV; [M+H]+
Name: 3-Indoleacetonitrile
Class: Natural Product; N/A
Formula: C10H8N2
Exact mass: 156.0687
Instrument: Bruker maXis HD
Instrument type: LC-ESI-QTOF
Ms type: MS
Ion mode: POSITIVE
Collision energy: 7 eV
Ionization: ESI
Retention time: 635.685 sec
m/z	relative intensity
117.0573	90
127.5338	5
130.0080	4
130.0651	999
131.0016	10
131.0684	95
139.0419	14
148.0179	3
155.0603	55
156.0680	93
157.0760	593
158.0792	5
161.0710	4
163.9905	2
166.9951	3
176.0495	31
176.5508	1
179.0579	310
180.0611	33
195.0229	16
196.5629	11
205.5684	3
213.0334	26
215.0565	17
222.0732	34
222.5746	7
231.0785	16
235.0811	4
254.0838	62
254.5855	19
263.0892	37
263.5905	14
272.0947	10
273.0412	7
279.0325	12
287.0706	11
293.0905	17
300.1076	19
300.6088	3
301.0763	13
301.1727	21
313.1154	12
313.6170	4
316.0199	5
321.1017	16
324.0838	3
324.1293	19
324.6306	9
332.1183	75
332.6199	32
333.1304	13
333.6358	4
334.1297	18
334.6319	3
335.1308	18
340.1044	62
340.6058	27
341.1064	12
341.1230	25
341.6247	7
348.1258	5
351.0911	4
367.2687	11
375.0652	7
382.1241	20
389.2510	11
394.0749	31
395.0789	7
408.5254	3
410.1185	19
410.1527	31
410.6539	16
419.1393	7
454.5496	3
486.5598	22
487.0617	5
550.1434	6
572.0306	2
572.5800	9
661.9836	4
