Mass spectrum: Rutin; LC-ESI-QTOF; MS2; CE:22 eV; [M+H]+
Name: Rutin
Class: Natural Product; N/A
Formula: C27H30O16
Exact mass: 610.1534
Instrument: Bruker maXis HD
Instrument type: LC-ESI-QTOF
Ms type: MS2
Ion mode: POSITIVE
Collision energy: 22 eV
Ionization: ESI
Retention time: 510.993 sec
Precursor m/z: 303.0457
Precursor type: [M+H]+
m/z	relative intensity
135.0444	927
153.0549	181
303.0497	999
304.0521	145
