Mass spectrum: 3-Indoleacetonitrile; LC-ESI-QTOF; MS2; CE:17 eV; [M+H]+
Name: 3-Indoleacetonitrile
Class: Natural Product; N/A
Formula: C10H8N2
Exact mass: 156.0687
Instrument: Bruker maXis HD
Instrument type: LC-ESI-QTOF
Ms type: MS2
Ion mode: POSITIVE
Collision energy: 17 eV
Ionization: ESI
Retention time: 633.59 sec
Precursor m/z: 157.0737
Precursor type: [M+H]+
m/z	relative intensity
77.0395	88
89.0392	193
90.0465	229
103.0547	37
106.9921	83
116.9765	64
117.0574	598
118.0599	38
130.0655	999
131.0687	116
155.0609	112
156.0668	39
