Mass spectrum: Biochanin A; LC-ESI-QTOF; MS2; CE:21 eV; [M+H]+
Name: Biochanin A
Class: Natural Product; N/A
Formula: C16H12O5
Exact mass: 284.0685
Instrument: Bruker maXis HD
Instrument type: LC-ESI-QTOF
Ms type: MS2
Ion mode: POSITIVE
Collision energy: 21 eV
Ionization: ESI
Retention time: 794.178 sec
Precursor m/z: 285.0717
Precursor type: [M+H]+
m/z	relative intensity
67.0178	3
68.9972	9
77.0388	4
89.0383	11
90.0463	14
91.0521	3
96.0209	7
115.0540	3
118.0413	16
121.0643	3
123.0440	6
124.0157	18
130.0412	6
131.0491	4
133.0651	3
141.0699	5
149.0236	6
152.0105	16
153.0184	14
157.0656	4
158.0364	6
168.0571	6
169.0650	4
171.0440	10
179.0341	3
184.0513	4
185.0600	19
186.0661	8
196.0506	4
197.0604	18
198.0639	4
213.0547	117
214.0594	21
215.0618	3
216.0412	7
224.0467	3
225.0547	11
229.0863	17
241.0496	33
242.0567	22
243.0608	3
253.0497	22
269.0441	22
270.0514	38
271.0555	7
285.0758	999
286.0791	182
287.0815	23
